
---------- Begin Simulation Statistics ----------
simSeconds                                   0.002247                       # Number of seconds simulated (Second)
simTicks                                   2246972000                       # Number of ticks simulated (Tick)
finalTick                                  2246972000                       # Number of ticks from beginning of simulation (restored from checkpoints and never reset) (Tick)
simFreq                                  1000000000000                       # The number of ticks per simulated second ((Tick/Second))
hostSeconds                                     17.84                       # Real time elapsed on the host (Second)
hostTickRate                                125937685                       # The number of ticks simulated per host second (ticks/s) ((Tick/Second))
hostMemory                                     781280                       # Number of bytes of host memory used (Byte)
simInsts                                      2145157                       # Number of instructions simulated (Count)
simOps                                        3757408                       # Number of ops (including micro ops) simulated (Count)
hostInstRate                                   120230                       # Simulator instruction rate (inst/s) ((Count/Second))
hostOpRate                                     210593                       # Simulator op (including micro ops) rate (op/s) ((Count/Second))
system.clk_domain.clock                          1000                       # Clock period in ticks (Tick)
system.clk_domain.voltage_domain.voltage            1                       # Voltage in Volts (Volt)
system.cpu1.numCycles                         2221956                       # Number of cpu cycles simulated (Cycle)
system.cpu1.numWorkItemsStarted                     0                       # Number of work items this cpu started (Count)
system.cpu1.numWorkItemsCompleted                   0                       # Number of work items this cpu completed (Count)
system.cpu1.instsAdded                        4756949                       # Number of instructions added to the IQ (excludes non-spec) (Count)
system.cpu1.nonSpecInstsAdded                    1953                       # Number of non-speculative instructions added to the IQ (Count)
system.cpu1.instsIssued                       4372321                       # Number of instructions issued (Count)
system.cpu1.squashedInstsIssued                  3019                       # Number of squashed instructions issued (Count)
system.cpu1.squashedInstsExamined             1038178                       # Number of squashed instructions iterated over during squash; mainly for profiling (Count)
system.cpu1.squashedOperandsExamined          1630534                       # Number of squashed operands that are examined and possibly removed from graph (Count)
system.cpu1.squashedNonSpecRemoved                249                       # Number of squashed non-spec instructions that were removed (Count)
system.cpu1.numIssuedDist::samples            2111412                       # Number of insts issued each cycle
system.cpu1.numIssuedDist::mean              2.070804                       # Number of insts issued each cycle
system.cpu1.numIssuedDist::stdev             2.343975                       # Number of insts issued each cycle
system.cpu1.numIssuedDist::underflows               0      0.00%      0.00% # Number of insts issued each cycle
system.cpu1.numIssuedDist::0                   922612     43.70%     43.70% # Number of insts issued each cycle
system.cpu1.numIssuedDist::1                   170303      8.07%     51.76% # Number of insts issued each cycle
system.cpu1.numIssuedDist::2                   221562     10.49%     62.26% # Number of insts issued each cycle
system.cpu1.numIssuedDist::3                   216894     10.27%     72.53% # Number of insts issued each cycle
system.cpu1.numIssuedDist::4                   201679      9.55%     82.08% # Number of insts issued each cycle
system.cpu1.numIssuedDist::5                   142919      6.77%     88.85% # Number of insts issued each cycle
system.cpu1.numIssuedDist::6                   113818      5.39%     94.24% # Number of insts issued each cycle
system.cpu1.numIssuedDist::7                    69007      3.27%     97.51% # Number of insts issued each cycle
system.cpu1.numIssuedDist::8                    52618      2.49%    100.00% # Number of insts issued each cycle
system.cpu1.numIssuedDist::overflows                0      0.00%    100.00% # Number of insts issued each cycle
system.cpu1.numIssuedDist::min_value                0                       # Number of insts issued each cycle
system.cpu1.numIssuedDist::max_value                8                       # Number of insts issued each cycle
system.cpu1.numIssuedDist::total              2111412                       # Number of insts issued each cycle
system.cpu1.statFuBusy::No_OpClass                  0      0.00%      0.00% # attempts to use FU when none available (Count)
system.cpu1.statFuBusy::IntAlu                  50636     69.90%     69.90% # attempts to use FU when none available (Count)
system.cpu1.statFuBusy::IntMult                     0      0.00%     69.90% # attempts to use FU when none available (Count)
system.cpu1.statFuBusy::IntDiv                      0      0.00%     69.90% # attempts to use FU when none available (Count)
system.cpu1.statFuBusy::FloatAdd                    0      0.00%     69.90% # attempts to use FU when none available (Count)
system.cpu1.statFuBusy::FloatCmp                    0      0.00%     69.90% # attempts to use FU when none available (Count)
system.cpu1.statFuBusy::FloatCvt                   53      0.07%     69.97% # attempts to use FU when none available (Count)
system.cpu1.statFuBusy::FloatMult                   0      0.00%     69.97% # attempts to use FU when none available (Count)
system.cpu1.statFuBusy::FloatMultAcc                0      0.00%     69.97% # attempts to use FU when none available (Count)
system.cpu1.statFuBusy::FloatDiv                    0      0.00%     69.97% # attempts to use FU when none available (Count)
system.cpu1.statFuBusy::FloatMisc                   0      0.00%     69.97% # attempts to use FU when none available (Count)
system.cpu1.statFuBusy::FloatSqrt                   0      0.00%     69.97% # attempts to use FU when none available (Count)
system.cpu1.statFuBusy::SimdAdd                     1      0.00%     69.98% # attempts to use FU when none available (Count)
system.cpu1.statFuBusy::SimdAddAcc                  0      0.00%     69.98% # attempts to use FU when none available (Count)
system.cpu1.statFuBusy::SimdAlu                   117      0.16%     70.14% # attempts to use FU when none available (Count)
system.cpu1.statFuBusy::SimdCmp                     0      0.00%     70.14% # attempts to use FU when none available (Count)
system.cpu1.statFuBusy::SimdCvt                   247      0.34%     70.48% # attempts to use FU when none available (Count)
system.cpu1.statFuBusy::SimdMisc                   14      0.02%     70.50% # attempts to use FU when none available (Count)
system.cpu1.statFuBusy::SimdMult                    0      0.00%     70.50% # attempts to use FU when none available (Count)
system.cpu1.statFuBusy::SimdMultAcc                 0      0.00%     70.50% # attempts to use FU when none available (Count)
system.cpu1.statFuBusy::SimdShift                  43      0.06%     70.56% # attempts to use FU when none available (Count)
system.cpu1.statFuBusy::SimdShiftAcc                0      0.00%     70.56% # attempts to use FU when none available (Count)
system.cpu1.statFuBusy::SimdDiv                     0      0.00%     70.56% # attempts to use FU when none available (Count)
system.cpu1.statFuBusy::SimdSqrt                    0      0.00%     70.56% # attempts to use FU when none available (Count)
system.cpu1.statFuBusy::SimdFloatAdd                0      0.00%     70.56% # attempts to use FU when none available (Count)
system.cpu1.statFuBusy::SimdFloatAlu                0      0.00%     70.56% # attempts to use FU when none available (Count)
system.cpu1.statFuBusy::SimdFloatCmp                0      0.00%     70.56% # attempts to use FU when none available (Count)
system.cpu1.statFuBusy::SimdFloatCvt                0      0.00%     70.56% # attempts to use FU when none available (Count)
system.cpu1.statFuBusy::SimdFloatDiv                0      0.00%     70.56% # attempts to use FU when none available (Count)
system.cpu1.statFuBusy::SimdFloatMisc               0      0.00%     70.56% # attempts to use FU when none available (Count)
system.cpu1.statFuBusy::SimdFloatMult               0      0.00%     70.56% # attempts to use FU when none available (Count)
system.cpu1.statFuBusy::SimdFloatMultAcc            0      0.00%     70.56% # attempts to use FU when none available (Count)
system.cpu1.statFuBusy::SimdFloatSqrt               0      0.00%     70.56% # attempts to use FU when none available (Count)
system.cpu1.statFuBusy::SimdReduceAdd               0      0.00%     70.56% # attempts to use FU when none available (Count)
system.cpu1.statFuBusy::SimdReduceAlu               0      0.00%     70.56% # attempts to use FU when none available (Count)
system.cpu1.statFuBusy::SimdReduceCmp               0      0.00%     70.56% # attempts to use FU when none available (Count)
system.cpu1.statFuBusy::SimdFloatReduceAdd            0      0.00%     70.56% # attempts to use FU when none available (Count)
system.cpu1.statFuBusy::SimdFloatReduceCmp            0      0.00%     70.56% # attempts to use FU when none available (Count)
system.cpu1.statFuBusy::SimdAes                     0      0.00%     70.56% # attempts to use FU when none available (Count)
system.cpu1.statFuBusy::SimdAesMix                  0      0.00%     70.56% # attempts to use FU when none available (Count)
system.cpu1.statFuBusy::SimdSha1Hash                0      0.00%     70.56% # attempts to use FU when none available (Count)
system.cpu1.statFuBusy::SimdSha1Hash2               0      0.00%     70.56% # attempts to use FU when none available (Count)
system.cpu1.statFuBusy::SimdSha256Hash              0      0.00%     70.56% # attempts to use FU when none available (Count)
system.cpu1.statFuBusy::SimdSha256Hash2             0      0.00%     70.56% # attempts to use FU when none available (Count)
system.cpu1.statFuBusy::SimdShaSigma2               0      0.00%     70.56% # attempts to use FU when none available (Count)
system.cpu1.statFuBusy::SimdShaSigma3               0      0.00%     70.56% # attempts to use FU when none available (Count)
system.cpu1.statFuBusy::SimdPredAlu                 0      0.00%     70.56% # attempts to use FU when none available (Count)
system.cpu1.statFuBusy::MemRead                 12649     17.46%     88.02% # attempts to use FU when none available (Count)
system.cpu1.statFuBusy::MemWrite                 7790     10.75%     98.77% # attempts to use FU when none available (Count)
system.cpu1.statFuBusy::FloatMemRead              729      1.01%     99.78% # attempts to use FU when none available (Count)
system.cpu1.statFuBusy::FloatMemWrite             160      0.22%    100.00% # attempts to use FU when none available (Count)
system.cpu1.statFuBusy::IprAccess                   0      0.00%    100.00% # attempts to use FU when none available (Count)
system.cpu1.statFuBusy::InstPrefetch                0      0.00%    100.00% # attempts to use FU when none available (Count)
system.cpu1.statIssuedInstType_0::No_OpClass        15066      0.34%      0.34% # Number of instructions issued per FU type, per thread (Count)
system.cpu1.statIssuedInstType_0::IntAlu      3426669     78.37%     78.72% # Number of instructions issued per FU type, per thread (Count)
system.cpu1.statIssuedInstType_0::IntMult           59      0.00%     78.72% # Number of instructions issued per FU type, per thread (Count)
system.cpu1.statIssuedInstType_0::IntDiv        38026      0.87%     79.59% # Number of instructions issued per FU type, per thread (Count)
system.cpu1.statIssuedInstType_0::FloatAdd         4489      0.10%     79.69% # Number of instructions issued per FU type, per thread (Count)
system.cpu1.statIssuedInstType_0::FloatCmp            0      0.00%     79.69% # Number of instructions issued per FU type, per thread (Count)
system.cpu1.statIssuedInstType_0::FloatCvt         2032      0.05%     79.74% # Number of instructions issued per FU type, per thread (Count)
system.cpu1.statIssuedInstType_0::FloatMult            0      0.00%     79.74% # Number of instructions issued per FU type, per thread (Count)
system.cpu1.statIssuedInstType_0::FloatMultAcc            0      0.00%     79.74% # Number of instructions issued per FU type, per thread (Count)
system.cpu1.statIssuedInstType_0::FloatDiv            0      0.00%     79.74% # Number of instructions issued per FU type, per thread (Count)
system.cpu1.statIssuedInstType_0::FloatMisc            0      0.00%     79.74% # Number of instructions issued per FU type, per thread (Count)
system.cpu1.statIssuedInstType_0::FloatSqrt            0      0.00%     79.74% # Number of instructions issued per FU type, per thread (Count)
system.cpu1.statIssuedInstType_0::SimdAdd         9422      0.22%     79.95% # Number of instructions issued per FU type, per thread (Count)
system.cpu1.statIssuedInstType_0::SimdAddAcc            0      0.00%     79.95% # Number of instructions issued per FU type, per thread (Count)
system.cpu1.statIssuedInstType_0::SimdAlu        18457      0.42%     80.37% # Number of instructions issued per FU type, per thread (Count)
system.cpu1.statIssuedInstType_0::SimdCmp           18      0.00%     80.37% # Number of instructions issued per FU type, per thread (Count)
system.cpu1.statIssuedInstType_0::SimdCvt        19605      0.45%     80.82% # Number of instructions issued per FU type, per thread (Count)
system.cpu1.statIssuedInstType_0::SimdMisc         9840      0.23%     81.05% # Number of instructions issued per FU type, per thread (Count)
system.cpu1.statIssuedInstType_0::SimdMult            0      0.00%     81.05% # Number of instructions issued per FU type, per thread (Count)
system.cpu1.statIssuedInstType_0::SimdMultAcc            0      0.00%     81.05% # Number of instructions issued per FU type, per thread (Count)
system.cpu1.statIssuedInstType_0::SimdShift         3296      0.08%     81.12% # Number of instructions issued per FU type, per thread (Count)
system.cpu1.statIssuedInstType_0::SimdShiftAcc            0      0.00%     81.12% # Number of instructions issued per FU type, per thread (Count)
system.cpu1.statIssuedInstType_0::SimdDiv            0      0.00%     81.12% # Number of instructions issued per FU type, per thread (Count)
system.cpu1.statIssuedInstType_0::SimdSqrt            0      0.00%     81.12% # Number of instructions issued per FU type, per thread (Count)
system.cpu1.statIssuedInstType_0::SimdFloatAdd            0      0.00%     81.12% # Number of instructions issued per FU type, per thread (Count)
system.cpu1.statIssuedInstType_0::SimdFloatAlu            0      0.00%     81.12% # Number of instructions issued per FU type, per thread (Count)
system.cpu1.statIssuedInstType_0::SimdFloatCmp            0      0.00%     81.12% # Number of instructions issued per FU type, per thread (Count)
system.cpu1.statIssuedInstType_0::SimdFloatCvt            0      0.00%     81.12% # Number of instructions issued per FU type, per thread (Count)
system.cpu1.statIssuedInstType_0::SimdFloatDiv            0      0.00%     81.12% # Number of instructions issued per FU type, per thread (Count)
system.cpu1.statIssuedInstType_0::SimdFloatMisc            0      0.00%     81.12% # Number of instructions issued per FU type, per thread (Count)
system.cpu1.statIssuedInstType_0::SimdFloatMult            0      0.00%     81.12% # Number of instructions issued per FU type, per thread (Count)
system.cpu1.statIssuedInstType_0::SimdFloatMultAcc            0      0.00%     81.12% # Number of instructions issued per FU type, per thread (Count)
system.cpu1.statIssuedInstType_0::SimdFloatSqrt            0      0.00%     81.12% # Number of instructions issued per FU type, per thread (Count)
system.cpu1.statIssuedInstType_0::SimdReduceAdd            0      0.00%     81.12% # Number of instructions issued per FU type, per thread (Count)
system.cpu1.statIssuedInstType_0::SimdReduceAlu            0      0.00%     81.12% # Number of instructions issued per FU type, per thread (Count)
system.cpu1.statIssuedInstType_0::SimdReduceCmp            0      0.00%     81.12% # Number of instructions issued per FU type, per thread (Count)
system.cpu1.statIssuedInstType_0::SimdFloatReduceAdd            0      0.00%     81.12% # Number of instructions issued per FU type, per thread (Count)
system.cpu1.statIssuedInstType_0::SimdFloatReduceCmp            0      0.00%     81.12% # Number of instructions issued per FU type, per thread (Count)
system.cpu1.statIssuedInstType_0::SimdAes            0      0.00%     81.12% # Number of instructions issued per FU type, per thread (Count)
system.cpu1.statIssuedInstType_0::SimdAesMix            0      0.00%     81.12% # Number of instructions issued per FU type, per thread (Count)
system.cpu1.statIssuedInstType_0::SimdSha1Hash            0      0.00%     81.12% # Number of instructions issued per FU type, per thread (Count)
system.cpu1.statIssuedInstType_0::SimdSha1Hash2            0      0.00%     81.12% # Number of instructions issued per FU type, per thread (Count)
system.cpu1.statIssuedInstType_0::SimdSha256Hash            0      0.00%     81.12% # Number of instructions issued per FU type, per thread (Count)
system.cpu1.statIssuedInstType_0::SimdSha256Hash2            0      0.00%     81.12% # Number of instructions issued per FU type, per thread (Count)
system.cpu1.statIssuedInstType_0::SimdShaSigma2            0      0.00%     81.12% # Number of instructions issued per FU type, per thread (Count)
system.cpu1.statIssuedInstType_0::SimdShaSigma3            0      0.00%     81.12% # Number of instructions issued per FU type, per thread (Count)
system.cpu1.statIssuedInstType_0::SimdPredAlu            0      0.00%     81.12% # Number of instructions issued per FU type, per thread (Count)
system.cpu1.statIssuedInstType_0::MemRead       589721     13.49%     94.61% # Number of instructions issued per FU type, per thread (Count)
system.cpu1.statIssuedInstType_0::MemWrite       186555      4.27%     98.88% # Number of instructions issued per FU type, per thread (Count)
system.cpu1.statIssuedInstType_0::FloatMemRead        34071      0.78%     99.66% # Number of instructions issued per FU type, per thread (Count)
system.cpu1.statIssuedInstType_0::FloatMemWrite        14995      0.34%    100.00% # Number of instructions issued per FU type, per thread (Count)
system.cpu1.statIssuedInstType_0::IprAccess            0      0.00%    100.00% # Number of instructions issued per FU type, per thread (Count)
system.cpu1.statIssuedInstType_0::InstPrefetch            0      0.00%    100.00% # Number of instructions issued per FU type, per thread (Count)
system.cpu1.statIssuedInstType_0::total       4372321                       # Number of instructions issued per FU type, per thread (Count)
system.cpu1.issueRate                        1.967780                       # Inst issue rate ((Count/Cycle))
system.cpu1.fuBusy                              72439                       # FU busy when requested (Count)
system.cpu1.fuBusyRate                       0.016568                       # FU busy rate (busy events/executed inst) ((Count/Count))
system.cpu1.intInstQueueReads                10695221                       # Number of integer instruction queue reads (Count)
system.cpu1.intInstQueueWrites                5611175                       # Number of integer instruction queue writes (Count)
system.cpu1.intInstQueueWakeupAccesses        4203688                       # Number of integer instruction queue wakeup accesses (Count)
system.cpu1.fpInstQueueReads                   236291                       # Number of floating instruction queue reads (Count)
system.cpu1.fpInstQueueWrites                  186079                       # Number of floating instruction queue writes (Count)
system.cpu1.fpInstQueueWakeupAccesses          112573                       # Number of floating instruction queue wakeup accesses (Count)
system.cpu1.vecInstQueueReads                       0                       # Number of vector instruction queue reads (Count)
system.cpu1.vecInstQueueWrites                      0                       # Number of vector instruction queue writes (Count)
system.cpu1.vecInstQueueWakeupAccesses              0                       # Number of vector instruction queue wakeup accesses (Count)
system.cpu1.intAluAccesses                    4311005                       # Number of integer alu accesses (Count)
system.cpu1.fpAluAccesses                      118689                       # Number of floating point alu accesses (Count)
system.cpu1.vecAluAccesses                          0                       # Number of vector alu accesses (Count)
system.cpu1.idleCycles                              0                       # Number of cycles IEW is idle (Cycle)
system.cpu1.squashCycles                        17003                       # Number of cycles IEW is squashing (Cycle)
system.cpu1.blockCycles                        551319                       # Number of cycles IEW is blocking (Cycle)
system.cpu1.unblockCycles                       20816                       # Number of cycles IEW is unblocking (Cycle)
system.cpu1.dispatchedInsts                   4758902                       # Number of instructions dispatched to IQ (Count)
system.cpu1.dispSquashedInsts                    1130                       # Number of squashed instructions skipped by dispatch (Count)
system.cpu1.dispLoadInsts                      650774                       # Number of dispatched load instructions (Count)
system.cpu1.dispStoreInsts                     212030                       # Number of dispatched store instructions (Count)
system.cpu1.dispNonSpecInsts                     1274                       # Number of dispatched non-speculative instructions (Count)
system.cpu1.iqFullEvents                         7468                       # Number of times the IQ has become full, causing a stall (Count)
system.cpu1.lsqFullEvents                       10128                       # Number of times the LSQ has become full, causing a stall (Count)
system.cpu1.memOrderViolationEvents               195                       # Number of memory order violations (Count)
system.cpu1.predictedTakenIncorrect              7545                       # Number of branches that were predicted taken incorrectly (Count)
system.cpu1.predictedNotTakenIncorrect          11149                       # Number of branches that were predicted not taken incorrectly (Count)
system.cpu1.branchMispredicts                   18694                       # Number of branch mispredicts detected at execute (Count)
system.cpu1.numInsts                          4341159                       # Number of executed instructions (Count)
system.cpu1.numLoadInsts                       615727                       # Number of load instructions executed (Count)
system.cpu1.numSquashedInsts                    31162                       # Number of squashed instructions skipped in execute (Count)
system.cpu1.numSwp                                  0                       # Number of swp insts executed (Count)
system.cpu1.numNop                                  0                       # Number of nop insts executed (Count)
system.cpu1.numRefs                            815581                       # Number of memory reference insts executed (Count)
system.cpu1.numBranches                        391790                       # Number of branches executed (Count)
system.cpu1.numStoreInsts                      199854                       # Number of stores executed (Count)
system.cpu1.numRate                          1.953756                       # Inst execution rate ((Count/Cycle))
system.cpu1.instsToCommit                     4325998                       # Cumulative count of insts sent to commit (Count)
system.cpu1.writebackCount                    4316261                       # Cumulative count of insts written-back (Count)
system.cpu1.producerInst                      3477587                       # Number of instructions producing a value (Count)
system.cpu1.consumerInst                      6449114                       # Number of instructions consuming a value (Count)
system.cpu1.wbRate                           1.942550                       # Insts written-back per cycle ((Count/Cycle))
system.cpu1.wbFanout                         0.539235                       # Average fanout of values written-back ((Count/Count))
system.cpu1.timesIdled                           1963                       # Number of times that the entire CPU went into an idle state and unscheduled itself (Count)
system.cpu1.idleCycles                         110544                       # Total number of cycles that the CPU has spent unscheduled due to idling (Cycle)
system.cpu1.quiesceCycles                       25017                       # Total number of cycles that CPU has spent quiesced or waiting for an interrupt (Cycle)
system.cpu1.committedInsts                    2126576                       # Number of Instructions Simulated (Count)
system.cpu1.committedOps                      3720718                       # Number of Ops (including micro ops) Simulated (Count)
system.cpu1.cpi                              1.044851                       # CPI: Cycles Per Instruction ((Cycle/Count))
system.cpu1.totalCpi                         1.044851                       # CPI: Total CPI of All Threads ((Cycle/Count))
system.cpu1.ipc                              0.957074                       # IPC: Instructions Per Cycle ((Count/Cycle))
system.cpu1.totalIpc                         0.957074                       # IPC: Total IPC of All Threads ((Count/Cycle))
system.cpu1.intRegfileReads                   6812808                       # Number of integer regfile reads (Count)
system.cpu1.intRegfileWrites                  3704774                       # Number of integer regfile writes (Count)
system.cpu1.fpRegfileReads                     158889                       # Number of floating regfile reads (Count)
system.cpu1.fpRegfileWrites                     87535                       # Number of floating regfile writes (Count)
system.cpu1.ccRegfileReads                    2470697                       # number of cc regfile reads (Count)
system.cpu1.ccRegfileWrites                   1978954                       # number of cc regfile writes (Count)
system.cpu1.miscRegfileReads                  1644621                       # number of misc regfile reads (Count)
system.cpu1.miscRegfileWrites                     927                       # number of misc regfile writes (Count)
system.cpu1.MemDepUnit__0.insertedLoads        650774                       # Number of loads inserted to the mem dependence unit. (Count)
system.cpu1.MemDepUnit__0.insertedStores       212030                       # Number of stores inserted to the mem dependence unit. (Count)
system.cpu1.MemDepUnit__0.conflictingLoads        16294                       # Number of conflicting loads. (Count)
system.cpu1.MemDepUnit__0.conflictingStores        10682                       # Number of conflicting stores. (Count)
system.cpu1.MemDepUnit__1.insertedLoads             0                       # Number of loads inserted to the mem dependence unit. (Count)
system.cpu1.MemDepUnit__1.insertedStores            0                       # Number of stores inserted to the mem dependence unit. (Count)
system.cpu1.MemDepUnit__1.conflictingLoads            0                       # Number of conflicting loads. (Count)
system.cpu1.MemDepUnit__1.conflictingStores            0                       # Number of conflicting stores. (Count)
system.cpu1.MemDepUnit__2.insertedLoads             0                       # Number of loads inserted to the mem dependence unit. (Count)
system.cpu1.MemDepUnit__2.insertedStores            0                       # Number of stores inserted to the mem dependence unit. (Count)
system.cpu1.MemDepUnit__2.conflictingLoads            0                       # Number of conflicting loads. (Count)
system.cpu1.MemDepUnit__2.conflictingStores            0                       # Number of conflicting stores. (Count)
system.cpu1.MemDepUnit__3.insertedLoads             0                       # Number of loads inserted to the mem dependence unit. (Count)
system.cpu1.MemDepUnit__3.insertedStores            0                       # Number of stores inserted to the mem dependence unit. (Count)
system.cpu1.MemDepUnit__3.conflictingLoads            0                       # Number of conflicting loads. (Count)
system.cpu1.MemDepUnit__3.conflictingStores            0                       # Number of conflicting stores. (Count)
system.cpu1.branchPred.lookups                 509222                       # Number of BP lookups (Count)
system.cpu1.branchPred.condPredicted           448121                       # Number of conditional branches predicted (Count)
system.cpu1.branchPred.condIncorrect            17351                       # Number of conditional branches incorrect (Count)
system.cpu1.branchPred.BTBLookups              266030                       # Number of BTB lookups (Count)
system.cpu1.branchPred.BTBHits                 261574                       # Number of BTB hits (Count)
system.cpu1.branchPred.BTBHitRatio           0.983250                       # BTB Hit Ratio (Ratio)
system.cpu1.branchPred.RASUsed                  14128                       # Number of times the RAS was used to get a target. (Count)
system.cpu1.branchPred.RASIncorrect                23                       # Number of incorrect RAS predictions. (Count)
system.cpu1.branchPred.indirectLookups          10392                       # Number of indirect predictor lookups. (Count)
system.cpu1.branchPred.indirectHits              5411                       # Number of indirect target hits. (Count)
system.cpu1.branchPred.indirectMisses            4981                       # Number of indirect misses. (Count)
system.cpu1.branchPred.indirectMispredicted         1393                       # Number of mispredicted indirect branches. (Count)
system.cpu1.commit.commitSquashedInsts        1033773                       # The number of squashed insts skipped by commit (Count)
system.cpu1.commit.commitNonSpecStalls           1704                       # The number of times commit has been forced to stall to communicate backwards (Count)
system.cpu1.commit.branchMispredicts            16380                       # The number of times a branch was mispredicted (Count)
system.cpu1.commit.numCommittedDist::samples      1966271                       # Number of insts commited each cycle
system.cpu1.commit.numCommittedDist::mean     1.892271                       # Number of insts commited each cycle
system.cpu1.commit.numCommittedDist::stdev     2.640457                       # Number of insts commited each cycle
system.cpu1.commit.numCommittedDist::underflows            0      0.00%      0.00% # Number of insts commited each cycle
system.cpu1.commit.numCommittedDist::0        1004090     51.07%     51.07% # Number of insts commited each cycle
system.cpu1.commit.numCommittedDist::1         232339     11.82%     62.88% # Number of insts commited each cycle
system.cpu1.commit.numCommittedDist::2          94889      4.83%     67.71% # Number of insts commited each cycle
system.cpu1.commit.numCommittedDist::3         253959     12.92%     80.62% # Number of insts commited each cycle
system.cpu1.commit.numCommittedDist::4          43170      2.20%     82.82% # Number of insts commited each cycle
system.cpu1.commit.numCommittedDist::5          98286      5.00%     87.82% # Number of insts commited each cycle
system.cpu1.commit.numCommittedDist::6          14495      0.74%     88.55% # Number of insts commited each cycle
system.cpu1.commit.numCommittedDist::7          14700      0.75%     89.30% # Number of insts commited each cycle
system.cpu1.commit.numCommittedDist::8         210343     10.70%    100.00% # Number of insts commited each cycle
system.cpu1.commit.numCommittedDist::overflows            0      0.00%    100.00% # Number of insts commited each cycle
system.cpu1.commit.numCommittedDist::min_value            0                       # Number of insts commited each cycle
system.cpu1.commit.numCommittedDist::max_value            8                       # Number of insts commited each cycle
system.cpu1.commit.numCommittedDist::total      1966271                       # Number of insts commited each cycle
system.cpu1.commit.instsCommitted             2126576                       # Number of instructions committed (Count)
system.cpu1.commit.opsCommitted               3720718                       # Number of ops (including micro ops) committed (Count)
system.cpu1.commit.memRefs                     693552                       # Number of memory references committed (Count)
system.cpu1.commit.loads                       514781                       # Number of loads committed (Count)
system.cpu1.commit.amos                             0                       # Number of atomic instructions committed (Count)
system.cpu1.commit.membars                        518                       # Number of memory barriers committed (Count)
system.cpu1.commit.branches                    358969                       # Number of branches committed (Count)
system.cpu1.commit.vectorInstructions               0                       # Number of committed Vector instructions. (Count)
system.cpu1.commit.floating                     87701                       # Number of committed floating point instructions. (Count)
system.cpu1.commit.integer                    3656711                       # Number of committed integer instructions. (Count)
system.cpu1.commit.functionCalls                10529                       # Number of function calls committed. (Count)
system.cpu1.commit.committedInstType_0::No_OpClass        10422      0.28%      0.28% # Class of committed instruction (Count)
system.cpu1.commit.committedInstType_0::IntAlu      2930880     78.77%     79.05% # Class of committed instruction (Count)
system.cpu1.commit.committedInstType_0::IntMult           50      0.00%     79.05% # Class of committed instruction (Count)
system.cpu1.commit.committedInstType_0::IntDiv        35820      0.96%     80.02% # Class of committed instruction (Count)
system.cpu1.commit.committedInstType_0::FloatAdd         3222      0.09%     80.10% # Class of committed instruction (Count)
system.cpu1.commit.committedInstType_0::FloatCmp            0      0.00%     80.10% # Class of committed instruction (Count)
system.cpu1.commit.committedInstType_0::FloatCvt         1648      0.04%     80.15% # Class of committed instruction (Count)
system.cpu1.commit.committedInstType_0::FloatMult            0      0.00%     80.15% # Class of committed instruction (Count)
system.cpu1.commit.committedInstType_0::FloatMultAcc            0      0.00%     80.15% # Class of committed instruction (Count)
system.cpu1.commit.committedInstType_0::FloatDiv            0      0.00%     80.15% # Class of committed instruction (Count)
system.cpu1.commit.committedInstType_0::FloatMisc            0      0.00%     80.15% # Class of committed instruction (Count)
system.cpu1.commit.committedInstType_0::FloatSqrt            0      0.00%     80.15% # Class of committed instruction (Count)
system.cpu1.commit.committedInstType_0::SimdAdd         7494      0.20%     80.35% # Class of committed instruction (Count)
system.cpu1.commit.committedInstType_0::SimdAddAcc            0      0.00%     80.35% # Class of committed instruction (Count)
system.cpu1.commit.committedInstType_0::SimdAlu        13009      0.35%     80.70% # Class of committed instruction (Count)
system.cpu1.commit.committedInstType_0::SimdCmp           12      0.00%     80.70% # Class of committed instruction (Count)
system.cpu1.commit.committedInstType_0::SimdCvt        14812      0.40%     81.10% # Class of committed instruction (Count)
system.cpu1.commit.committedInstType_0::SimdMisc         8047      0.22%     81.31% # Class of committed instruction (Count)
system.cpu1.commit.committedInstType_0::SimdMult            0      0.00%     81.31% # Class of committed instruction (Count)
system.cpu1.commit.committedInstType_0::SimdMultAcc            0      0.00%     81.31% # Class of committed instruction (Count)
system.cpu1.commit.committedInstType_0::SimdShift         1750      0.05%     81.36% # Class of committed instruction (Count)
system.cpu1.commit.committedInstType_0::SimdShiftAcc            0      0.00%     81.36% # Class of committed instruction (Count)
system.cpu1.commit.committedInstType_0::SimdDiv            0      0.00%     81.36% # Class of committed instruction (Count)
system.cpu1.commit.committedInstType_0::SimdSqrt            0      0.00%     81.36% # Class of committed instruction (Count)
system.cpu1.commit.committedInstType_0::SimdFloatAdd            0      0.00%     81.36% # Class of committed instruction (Count)
system.cpu1.commit.committedInstType_0::SimdFloatAlu            0      0.00%     81.36% # Class of committed instruction (Count)
system.cpu1.commit.committedInstType_0::SimdFloatCmp            0      0.00%     81.36% # Class of committed instruction (Count)
system.cpu1.commit.committedInstType_0::SimdFloatCvt            0      0.00%     81.36% # Class of committed instruction (Count)
system.cpu1.commit.committedInstType_0::SimdFloatDiv            0      0.00%     81.36% # Class of committed instruction (Count)
system.cpu1.commit.committedInstType_0::SimdFloatMisc            0      0.00%     81.36% # Class of committed instruction (Count)
system.cpu1.commit.committedInstType_0::SimdFloatMult            0      0.00%     81.36% # Class of committed instruction (Count)
system.cpu1.commit.committedInstType_0::SimdFloatMultAcc            0      0.00%     81.36% # Class of committed instruction (Count)
system.cpu1.commit.committedInstType_0::SimdFloatSqrt            0      0.00%     81.36% # Class of committed instruction (Count)
system.cpu1.commit.committedInstType_0::SimdReduceAdd            0      0.00%     81.36% # Class of committed instruction (Count)
system.cpu1.commit.committedInstType_0::SimdReduceAlu            0      0.00%     81.36% # Class of committed instruction (Count)
system.cpu1.commit.committedInstType_0::SimdReduceCmp            0      0.00%     81.36% # Class of committed instruction (Count)
system.cpu1.commit.committedInstType_0::SimdFloatReduceAdd            0      0.00%     81.36% # Class of committed instruction (Count)
system.cpu1.commit.committedInstType_0::SimdFloatReduceCmp            0      0.00%     81.36% # Class of committed instruction (Count)
system.cpu1.commit.committedInstType_0::SimdAes            0      0.00%     81.36% # Class of committed instruction (Count)
system.cpu1.commit.committedInstType_0::SimdAesMix            0      0.00%     81.36% # Class of committed instruction (Count)
system.cpu1.commit.committedInstType_0::SimdSha1Hash            0      0.00%     81.36% # Class of committed instruction (Count)
system.cpu1.commit.committedInstType_0::SimdSha1Hash2            0      0.00%     81.36% # Class of committed instruction (Count)
system.cpu1.commit.committedInstType_0::SimdSha256Hash            0      0.00%     81.36% # Class of committed instruction (Count)
system.cpu1.commit.committedInstType_0::SimdSha256Hash2            0      0.00%     81.36% # Class of committed instruction (Count)
system.cpu1.commit.committedInstType_0::SimdShaSigma2            0      0.00%     81.36% # Class of committed instruction (Count)
system.cpu1.commit.committedInstType_0::SimdShaSigma3            0      0.00%     81.36% # Class of committed instruction (Count)
system.cpu1.commit.committedInstType_0::SimdPredAlu            0      0.00%     81.36% # Class of committed instruction (Count)
system.cpu1.commit.committedInstType_0::MemRead       491777     13.22%     94.58% # Class of committed instruction (Count)
system.cpu1.commit.committedInstType_0::MemWrite       164976      4.43%     99.01% # Class of committed instruction (Count)
system.cpu1.commit.committedInstType_0::FloatMemRead        23004      0.62%     99.63% # Class of committed instruction (Count)
system.cpu1.commit.committedInstType_0::FloatMemWrite        13795      0.37%    100.00% # Class of committed instruction (Count)
system.cpu1.commit.committedInstType_0::IprAccess            0      0.00%    100.00% # Class of committed instruction (Count)
system.cpu1.commit.committedInstType_0::InstPrefetch            0      0.00%    100.00% # Class of committed instruction (Count)
system.cpu1.commit.committedInstType_0::total      3720718                       # Class of committed instruction (Count)
system.cpu1.commit.commitEligibleSamples       210343                       # number cycles where commit BW limit reached (Cycle)
system.cpu1.dcache.demandHits::cpu1.data       671584                       # number of demand (read+write) hits (Count)
system.cpu1.dcache.demandHits::total           671584                       # number of demand (read+write) hits (Count)
system.cpu1.dcache.overallHits::cpu1.data       671584                       # number of overall hits (Count)
system.cpu1.dcache.overallHits::total          671584                       # number of overall hits (Count)
system.cpu1.dcache.demandMisses::cpu1.data        52672                       # number of demand (read+write) misses (Count)
system.cpu1.dcache.demandMisses::total          52672                       # number of demand (read+write) misses (Count)
system.cpu1.dcache.overallMisses::cpu1.data        52672                       # number of overall misses (Count)
system.cpu1.dcache.overallMisses::total         52672                       # number of overall misses (Count)
system.cpu1.dcache.demandMissLatency::cpu1.data   4273005998                       # number of demand (read+write) miss ticks (Tick)
system.cpu1.dcache.demandMissLatency::total   4273005998                       # number of demand (read+write) miss ticks (Tick)
system.cpu1.dcache.overallMissLatency::cpu1.data   4273005998                       # number of overall miss ticks (Tick)
system.cpu1.dcache.overallMissLatency::total   4273005998                       # number of overall miss ticks (Tick)
system.cpu1.dcache.demandAccesses::cpu1.data       724256                       # number of demand (read+write) accesses (Count)
system.cpu1.dcache.demandAccesses::total       724256                       # number of demand (read+write) accesses (Count)
system.cpu1.dcache.overallAccesses::cpu1.data       724256                       # number of overall (read+write) accesses (Count)
system.cpu1.dcache.overallAccesses::total       724256                       # number of overall (read+write) accesses (Count)
system.cpu1.dcache.demandMissRate::cpu1.data     0.072726                       # miss rate for demand accesses (Ratio)
system.cpu1.dcache.demandMissRate::total     0.072726                       # miss rate for demand accesses (Ratio)
system.cpu1.dcache.overallMissRate::cpu1.data     0.072726                       # miss rate for overall accesses (Ratio)
system.cpu1.dcache.overallMissRate::total     0.072726                       # miss rate for overall accesses (Ratio)
system.cpu1.dcache.demandAvgMissLatency::cpu1.data 81124.810108                       # average overall miss latency ((Cycle/Count))
system.cpu1.dcache.demandAvgMissLatency::total 81124.810108                       # average overall miss latency ((Cycle/Count))
system.cpu1.dcache.overallAvgMissLatency::cpu1.data 81124.810108                       # average overall miss latency ((Cycle/Count))
system.cpu1.dcache.overallAvgMissLatency::total 81124.810108                       # average overall miss latency ((Cycle/Count))
system.cpu1.dcache.blockedCycles::no_mshrs        17450                       # number of cycles access was blocked (Cycle)
system.cpu1.dcache.blockedCycles::no_targets          371                       # number of cycles access was blocked (Cycle)
system.cpu1.dcache.blockedCauses::no_mshrs          616                       # number of times access was blocked (Count)
system.cpu1.dcache.blockedCauses::no_targets            5                       # number of times access was blocked (Count)
system.cpu1.dcache.avgBlocked::no_mshrs     28.327922                       # average number of cycles each access was blocked ((Cycle/Count))
system.cpu1.dcache.avgBlocked::no_targets    74.200000                       # average number of cycles each access was blocked ((Cycle/Count))
system.cpu1.dcache.writebacks::writebacks         2910                       # number of writebacks (Count)
system.cpu1.dcache.writebacks::total             2910                       # number of writebacks (Count)
system.cpu1.dcache.demandMshrHits::cpu1.data        36099                       # number of demand (read+write) MSHR hits (Count)
system.cpu1.dcache.demandMshrHits::total        36099                       # number of demand (read+write) MSHR hits (Count)
system.cpu1.dcache.overallMshrHits::cpu1.data        36099                       # number of overall MSHR hits (Count)
system.cpu1.dcache.overallMshrHits::total        36099                       # number of overall MSHR hits (Count)
system.cpu1.dcache.demandMshrMisses::cpu1.data        16573                       # number of demand (read+write) MSHR misses (Count)
system.cpu1.dcache.demandMshrMisses::total        16573                       # number of demand (read+write) MSHR misses (Count)
system.cpu1.dcache.overallMshrMisses::cpu1.data        16573                       # number of overall MSHR misses (Count)
system.cpu1.dcache.overallMshrMisses::total        16573                       # number of overall MSHR misses (Count)
system.cpu1.dcache.demandMshrMissLatency::cpu1.data   1298307998                       # number of demand (read+write) MSHR miss ticks (Tick)
system.cpu1.dcache.demandMshrMissLatency::total   1298307998                       # number of demand (read+write) MSHR miss ticks (Tick)
system.cpu1.dcache.overallMshrMissLatency::cpu1.data   1298307998                       # number of overall MSHR miss ticks (Tick)
system.cpu1.dcache.overallMshrMissLatency::total   1298307998                       # number of overall MSHR miss ticks (Tick)
system.cpu1.dcache.demandMshrMissRate::cpu1.data     0.022883                       # mshr miss ratio for demand accesses (Ratio)
system.cpu1.dcache.demandMshrMissRate::total     0.022883                       # mshr miss ratio for demand accesses (Ratio)
system.cpu1.dcache.overallMshrMissRate::cpu1.data     0.022883                       # mshr miss ratio for overall accesses (Ratio)
system.cpu1.dcache.overallMshrMissRate::total     0.022883                       # mshr miss ratio for overall accesses (Ratio)
system.cpu1.dcache.demandAvgMshrMissLatency::cpu1.data 78338.743619                       # average overall mshr miss latency ((Cycle/Count))
system.cpu1.dcache.demandAvgMshrMissLatency::total 78338.743619                       # average overall mshr miss latency ((Cycle/Count))
system.cpu1.dcache.overallAvgMshrMissLatency::cpu1.data 78338.743619                       # average overall mshr miss latency ((Cycle/Count))
system.cpu1.dcache.overallAvgMshrMissLatency::total 78338.743619                       # average overall mshr miss latency ((Cycle/Count))
system.cpu1.dcache.replacements                 15506                       # number of replacements (Count)
system.cpu1.dcache.ReadReq.hits::cpu1.data       495072                       # number of ReadReq hits (Count)
system.cpu1.dcache.ReadReq.hits::total         495072                       # number of ReadReq hits (Count)
system.cpu1.dcache.ReadReq.misses::cpu1.data        50399                       # number of ReadReq misses (Count)
system.cpu1.dcache.ReadReq.misses::total        50399                       # number of ReadReq misses (Count)
system.cpu1.dcache.ReadReq.missLatency::cpu1.data   4083611000                       # number of ReadReq miss ticks (Tick)
system.cpu1.dcache.ReadReq.missLatency::total   4083611000                       # number of ReadReq miss ticks (Tick)
system.cpu1.dcache.ReadReq.accesses::cpu1.data       545471                       # number of ReadReq accesses(hits+misses) (Count)
system.cpu1.dcache.ReadReq.accesses::total       545471                       # number of ReadReq accesses(hits+misses) (Count)
system.cpu1.dcache.ReadReq.missRate::cpu1.data     0.092395                       # miss rate for ReadReq accesses (Ratio)
system.cpu1.dcache.ReadReq.missRate::total     0.092395                       # miss rate for ReadReq accesses (Ratio)
system.cpu1.dcache.ReadReq.avgMissLatency::cpu1.data 81025.635429                       # average ReadReq miss latency ((Tick/Count))
system.cpu1.dcache.ReadReq.avgMissLatency::total 81025.635429                       # average ReadReq miss latency ((Tick/Count))
system.cpu1.dcache.ReadReq.mshrHits::cpu1.data        36092                       # number of ReadReq MSHR hits (Count)
system.cpu1.dcache.ReadReq.mshrHits::total        36092                       # number of ReadReq MSHR hits (Count)
system.cpu1.dcache.ReadReq.mshrMisses::cpu1.data        14307                       # number of ReadReq MSHR misses (Count)
system.cpu1.dcache.ReadReq.mshrMisses::total        14307                       # number of ReadReq MSHR misses (Count)
system.cpu1.dcache.ReadReq.mshrMissLatency::cpu1.data   1114017000                       # number of ReadReq MSHR miss ticks (Tick)
system.cpu1.dcache.ReadReq.mshrMissLatency::total   1114017000                       # number of ReadReq MSHR miss ticks (Tick)
system.cpu1.dcache.ReadReq.mshrMissRate::cpu1.data     0.026229                       # mshr miss rate for ReadReq accesses (Ratio)
system.cpu1.dcache.ReadReq.mshrMissRate::total     0.026229                       # mshr miss rate for ReadReq accesses (Ratio)
system.cpu1.dcache.ReadReq.avgMshrMissLatency::cpu1.data 77865.170895                       # average ReadReq mshr miss latency ((Tick/Count))
system.cpu1.dcache.ReadReq.avgMshrMissLatency::total 77865.170895                       # average ReadReq mshr miss latency ((Tick/Count))
system.cpu1.dcache.WriteReq.hits::cpu1.data       176512                       # number of WriteReq hits (Count)
system.cpu1.dcache.WriteReq.hits::total        176512                       # number of WriteReq hits (Count)
system.cpu1.dcache.WriteReq.misses::cpu1.data         2273                       # number of WriteReq misses (Count)
system.cpu1.dcache.WriteReq.misses::total         2273                       # number of WriteReq misses (Count)
system.cpu1.dcache.WriteReq.missLatency::cpu1.data    189394998                       # number of WriteReq miss ticks (Tick)
system.cpu1.dcache.WriteReq.missLatency::total    189394998                       # number of WriteReq miss ticks (Tick)
system.cpu1.dcache.WriteReq.accesses::cpu1.data       178785                       # number of WriteReq accesses(hits+misses) (Count)
system.cpu1.dcache.WriteReq.accesses::total       178785                       # number of WriteReq accesses(hits+misses) (Count)
system.cpu1.dcache.WriteReq.missRate::cpu1.data     0.012714                       # miss rate for WriteReq accesses (Ratio)
system.cpu1.dcache.WriteReq.missRate::total     0.012714                       # miss rate for WriteReq accesses (Ratio)
system.cpu1.dcache.WriteReq.avgMissLatency::cpu1.data 83323.800264                       # average WriteReq miss latency ((Tick/Count))
system.cpu1.dcache.WriteReq.avgMissLatency::total 83323.800264                       # average WriteReq miss latency ((Tick/Count))
system.cpu1.dcache.WriteReq.mshrHits::cpu1.data            7                       # number of WriteReq MSHR hits (Count)
system.cpu1.dcache.WriteReq.mshrHits::total            7                       # number of WriteReq MSHR hits (Count)
system.cpu1.dcache.WriteReq.mshrMisses::cpu1.data         2266                       # number of WriteReq MSHR misses (Count)
system.cpu1.dcache.WriteReq.mshrMisses::total         2266                       # number of WriteReq MSHR misses (Count)
system.cpu1.dcache.WriteReq.mshrMissLatency::cpu1.data    184290998                       # number of WriteReq MSHR miss ticks (Tick)
system.cpu1.dcache.WriteReq.mshrMissLatency::total    184290998                       # number of WriteReq MSHR miss ticks (Tick)
system.cpu1.dcache.WriteReq.mshrMissRate::cpu1.data     0.012674                       # mshr miss rate for WriteReq accesses (Ratio)
system.cpu1.dcache.WriteReq.mshrMissRate::total     0.012674                       # mshr miss rate for WriteReq accesses (Ratio)
system.cpu1.dcache.WriteReq.avgMshrMissLatency::cpu1.data 81328.772286                       # average WriteReq mshr miss latency ((Tick/Count))
system.cpu1.dcache.WriteReq.avgMshrMissLatency::total 81328.772286                       # average WriteReq mshr miss latency ((Tick/Count))
system.cpu1.dcache.power_state.pwrStateResidencyTicks::UNDEFINED   2246972000                       # Cumulative time (in ticks) in various power states (Tick)
system.cpu1.dcache.tags.tagsInUse          978.542791                       # Average ticks per tags in use ((Tick/Count))
system.cpu1.dcache.tags.totalRefs              688157                       # Total number of references to valid blocks. (Count)
system.cpu1.dcache.tags.sampledRefs             16555                       # Sample count of references to valid blocks. (Count)
system.cpu1.dcache.tags.avgRefs             41.567925                       # Average number of references to valid blocks. ((Count/Count))
system.cpu1.dcache.tags.warmupTick             227000                       # The tick when the warmup percentage was hit. (Tick)
system.cpu1.dcache.tags.occupancies::cpu1.data   978.542791                       # Average occupied blocks per tick, per requestor ((Count/Tick))
system.cpu1.dcache.tags.avgOccs::cpu1.data     0.955608                       # Average percentage of cache occupancy ((Ratio/Tick))
system.cpu1.dcache.tags.avgOccs::total       0.955608                       # Average percentage of cache occupancy ((Ratio/Tick))
system.cpu1.dcache.tags.occupanciesTaskId::1024         1018                       # Occupied blocks per task id (Count)
system.cpu1.dcache.tags.ageTaskId_1024::0           56                       # Occupied blocks per task id, per block age (Count)
system.cpu1.dcache.tags.ageTaskId_1024::1          249                       # Occupied blocks per task id, per block age (Count)
system.cpu1.dcache.tags.ageTaskId_1024::2          709                       # Occupied blocks per task id, per block age (Count)
system.cpu1.dcache.tags.ageTaskId_1024::3            4                       # Occupied blocks per task id, per block age (Count)
system.cpu1.dcache.tags.ratioOccsTaskId::1024     0.994141                       # Ratio of occupied blocks and all blocks, per task id (Ratio)
system.cpu1.dcache.tags.tagAccesses           1465067                       # Number of tag accesses (Count)
system.cpu1.dcache.tags.dataAccesses          1465067                       # Number of data accesses (Count)
system.cpu1.dcache.tags.power_state.pwrStateResidencyTicks::UNDEFINED   2246972000                       # Cumulative time (in ticks) in various power states (Tick)
system.cpu1.decode.idleCycles                  330931                       # Number of cycles decode is idle (Cycle)
system.cpu1.decode.blockedCycles              1063833                       # Number of cycles decode is blocked (Cycle)
system.cpu1.decode.runCycles                   508281                       # Number of cycles decode is running (Cycle)
system.cpu1.decode.unblockCycles               191364                       # Number of cycles decode is unblocking (Cycle)
system.cpu1.decode.squashCycles                 17003                       # Number of cycles decode is squashing (Cycle)
system.cpu1.decode.branchResolved              248279                       # Number of times decode resolved a branch (Count)
system.cpu1.decode.branchMispred                 1503                       # Number of times decode detected a branch misprediction (Count)
system.cpu1.decode.decodedInsts               4950582                       # Number of instructions handled by decode (Count)
system.cpu1.decode.squashedInsts                 7406                       # Number of squashed instructions handled by decode (Count)
system.cpu1.fetch.icacheStallCycles            334652                       # Number of cycles fetch is stalled on an Icache miss (Cycle)
system.cpu1.fetch.insts                       2947168                       # Number of instructions fetch has processed (Count)
system.cpu1.fetch.branches                     509222                       # Number of branches that fetch encountered (Count)
system.cpu1.fetch.predictedBranches            281113                       # Number of branches that fetch has predicted taken (Count)
system.cpu1.fetch.cycles                      1753763                       # Number of cycles fetch has run and was not squashing or blocked (Cycle)
system.cpu1.fetch.squashCycles                  36964                       # Number of cycles fetch has spent squashing (Cycle)
system.cpu1.fetch.miscStallCycles                 558                       # Number of cycles fetch has spent waiting on interrupts, or bad addresses, or out of MSHRs (Cycle)
system.cpu1.fetch.pendingTrapStallCycles         3924                       # Number of stall cycles due to pending traps (Cycle)
system.cpu1.fetch.pendingQuiesceStallCycles           24                       # Number of stall cycles due to pending quiesce instructions (Cycle)
system.cpu1.fetch.icacheWaitRetryStallCycles            9                       # Number of stall cycles due to full MSHR (Cycle)
system.cpu1.fetch.cacheLines                   246023                       # Number of cache lines fetched (Count)
system.cpu1.fetch.icacheSquashes                 4821                       # Number of outstanding Icache misses that were squashed (Count)
system.cpu1.fetch.nisnDist::samples           2111412                       # Number of instructions fetched each cycle (Total)
system.cpu1.fetch.nisnDist::mean             2.476623                       # Number of instructions fetched each cycle (Total)
system.cpu1.fetch.nisnDist::stdev            3.341296                       # Number of instructions fetched each cycle (Total)
system.cpu1.fetch.nisnDist::underflows              0      0.00%      0.00% # Number of instructions fetched each cycle (Total)
system.cpu1.fetch.nisnDist::0                 1253045     59.35%     59.35% # Number of instructions fetched each cycle (Total)
system.cpu1.fetch.nisnDist::1                   31510      1.49%     60.84% # Number of instructions fetched each cycle (Total)
system.cpu1.fetch.nisnDist::2                   62369      2.95%     63.79% # Number of instructions fetched each cycle (Total)
system.cpu1.fetch.nisnDist::3                   61419      2.91%     66.70% # Number of instructions fetched each cycle (Total)
system.cpu1.fetch.nisnDist::4                  112622      5.33%     72.04% # Number of instructions fetched each cycle (Total)
system.cpu1.fetch.nisnDist::5                   46410      2.20%     74.23% # Number of instructions fetched each cycle (Total)
system.cpu1.fetch.nisnDist::6                   50604      2.40%     76.63% # Number of instructions fetched each cycle (Total)
system.cpu1.fetch.nisnDist::7                   44959      2.13%     78.76% # Number of instructions fetched each cycle (Total)
system.cpu1.fetch.nisnDist::8                  448474     21.24%    100.00% # Number of instructions fetched each cycle (Total)
system.cpu1.fetch.nisnDist::overflows               0      0.00%    100.00% # Number of instructions fetched each cycle (Total)
system.cpu1.fetch.nisnDist::min_value               0                       # Number of instructions fetched each cycle (Total)
system.cpu1.fetch.nisnDist::max_value               8                       # Number of instructions fetched each cycle (Total)
system.cpu1.fetch.nisnDist::total             2111412                       # Number of instructions fetched each cycle (Total)
system.cpu1.fetch.branchRate                 0.229177                       # Number of branch fetches per cycle (Ratio)
system.cpu1.fetch.rate                       1.326385                       # Number of inst fetches per cycle ((Count/Cycle))
system.cpu1.icache.demandHits::cpu1.inst       241749                       # number of demand (read+write) hits (Count)
system.cpu1.icache.demandHits::total           241749                       # number of demand (read+write) hits (Count)
system.cpu1.icache.overallHits::cpu1.inst       241749                       # number of overall hits (Count)
system.cpu1.icache.overallHits::total          241749                       # number of overall hits (Count)
system.cpu1.icache.demandMisses::cpu1.inst         4274                       # number of demand (read+write) misses (Count)
system.cpu1.icache.demandMisses::total           4274                       # number of demand (read+write) misses (Count)
system.cpu1.icache.overallMisses::cpu1.inst         4274                       # number of overall misses (Count)
system.cpu1.icache.overallMisses::total          4274                       # number of overall misses (Count)
system.cpu1.icache.demandMissLatency::cpu1.inst    329638999                       # number of demand (read+write) miss ticks (Tick)
system.cpu1.icache.demandMissLatency::total    329638999                       # number of demand (read+write) miss ticks (Tick)
system.cpu1.icache.overallMissLatency::cpu1.inst    329638999                       # number of overall miss ticks (Tick)
system.cpu1.icache.overallMissLatency::total    329638999                       # number of overall miss ticks (Tick)
system.cpu1.icache.demandAccesses::cpu1.inst       246023                       # number of demand (read+write) accesses (Count)
system.cpu1.icache.demandAccesses::total       246023                       # number of demand (read+write) accesses (Count)
system.cpu1.icache.overallAccesses::cpu1.inst       246023                       # number of overall (read+write) accesses (Count)
system.cpu1.icache.overallAccesses::total       246023                       # number of overall (read+write) accesses (Count)
system.cpu1.icache.demandMissRate::cpu1.inst     0.017372                       # miss rate for demand accesses (Ratio)
system.cpu1.icache.demandMissRate::total     0.017372                       # miss rate for demand accesses (Ratio)
system.cpu1.icache.overallMissRate::cpu1.inst     0.017372                       # miss rate for overall accesses (Ratio)
system.cpu1.icache.overallMissRate::total     0.017372                       # miss rate for overall accesses (Ratio)
system.cpu1.icache.demandAvgMissLatency::cpu1.inst 77126.579083                       # average overall miss latency ((Cycle/Count))
system.cpu1.icache.demandAvgMissLatency::total 77126.579083                       # average overall miss latency ((Cycle/Count))
system.cpu1.icache.overallAvgMissLatency::cpu1.inst 77126.579083                       # average overall miss latency ((Cycle/Count))
system.cpu1.icache.overallAvgMissLatency::total 77126.579083                       # average overall miss latency ((Cycle/Count))
system.cpu1.icache.blockedCycles::no_mshrs          376                       # number of cycles access was blocked (Cycle)
system.cpu1.icache.blockedCycles::no_targets            0                       # number of cycles access was blocked (Cycle)
system.cpu1.icache.blockedCauses::no_mshrs            7                       # number of times access was blocked (Count)
system.cpu1.icache.blockedCauses::no_targets            0                       # number of times access was blocked (Count)
system.cpu1.icache.avgBlocked::no_mshrs     53.714286                       # average number of cycles each access was blocked ((Cycle/Count))
system.cpu1.icache.avgBlocked::no_targets          nan                       # average number of cycles each access was blocked ((Cycle/Count))
system.cpu1.icache.demandMshrHits::cpu1.inst          778                       # number of demand (read+write) MSHR hits (Count)
system.cpu1.icache.demandMshrHits::total          778                       # number of demand (read+write) MSHR hits (Count)
system.cpu1.icache.overallMshrHits::cpu1.inst          778                       # number of overall MSHR hits (Count)
system.cpu1.icache.overallMshrHits::total          778                       # number of overall MSHR hits (Count)
system.cpu1.icache.demandMshrMisses::cpu1.inst         3496                       # number of demand (read+write) MSHR misses (Count)
system.cpu1.icache.demandMshrMisses::total         3496                       # number of demand (read+write) MSHR misses (Count)
system.cpu1.icache.overallMshrMisses::cpu1.inst         3496                       # number of overall MSHR misses (Count)
system.cpu1.icache.overallMshrMisses::total         3496                       # number of overall MSHR misses (Count)
system.cpu1.icache.demandMshrMissLatency::cpu1.inst    267112000                       # number of demand (read+write) MSHR miss ticks (Tick)
system.cpu1.icache.demandMshrMissLatency::total    267112000                       # number of demand (read+write) MSHR miss ticks (Tick)
system.cpu1.icache.overallMshrMissLatency::cpu1.inst    267112000                       # number of overall MSHR miss ticks (Tick)
system.cpu1.icache.overallMshrMissLatency::total    267112000                       # number of overall MSHR miss ticks (Tick)
system.cpu1.icache.demandMshrMissRate::cpu1.inst     0.014210                       # mshr miss ratio for demand accesses (Ratio)
system.cpu1.icache.demandMshrMissRate::total     0.014210                       # mshr miss ratio for demand accesses (Ratio)
system.cpu1.icache.overallMshrMissRate::cpu1.inst     0.014210                       # mshr miss ratio for overall accesses (Ratio)
system.cpu1.icache.overallMshrMissRate::total     0.014210                       # mshr miss ratio for overall accesses (Ratio)
system.cpu1.icache.demandAvgMshrMissLatency::cpu1.inst 76405.034325                       # average overall mshr miss latency ((Cycle/Count))
system.cpu1.icache.demandAvgMshrMissLatency::total 76405.034325                       # average overall mshr miss latency ((Cycle/Count))
system.cpu1.icache.overallAvgMshrMissLatency::cpu1.inst 76405.034325                       # average overall mshr miss latency ((Cycle/Count))
system.cpu1.icache.overallAvgMshrMissLatency::total 76405.034325                       # average overall mshr miss latency ((Cycle/Count))
system.cpu1.icache.replacements                  3237                       # number of replacements (Count)
system.cpu1.icache.ReadReq.hits::cpu1.inst       241749                       # number of ReadReq hits (Count)
system.cpu1.icache.ReadReq.hits::total         241749                       # number of ReadReq hits (Count)
system.cpu1.icache.ReadReq.misses::cpu1.inst         4274                       # number of ReadReq misses (Count)
system.cpu1.icache.ReadReq.misses::total         4274                       # number of ReadReq misses (Count)
system.cpu1.icache.ReadReq.missLatency::cpu1.inst    329638999                       # number of ReadReq miss ticks (Tick)
system.cpu1.icache.ReadReq.missLatency::total    329638999                       # number of ReadReq miss ticks (Tick)
system.cpu1.icache.ReadReq.accesses::cpu1.inst       246023                       # number of ReadReq accesses(hits+misses) (Count)
system.cpu1.icache.ReadReq.accesses::total       246023                       # number of ReadReq accesses(hits+misses) (Count)
system.cpu1.icache.ReadReq.missRate::cpu1.inst     0.017372                       # miss rate for ReadReq accesses (Ratio)
system.cpu1.icache.ReadReq.missRate::total     0.017372                       # miss rate for ReadReq accesses (Ratio)
system.cpu1.icache.ReadReq.avgMissLatency::cpu1.inst 77126.579083                       # average ReadReq miss latency ((Tick/Count))
system.cpu1.icache.ReadReq.avgMissLatency::total 77126.579083                       # average ReadReq miss latency ((Tick/Count))
system.cpu1.icache.ReadReq.mshrHits::cpu1.inst          778                       # number of ReadReq MSHR hits (Count)
system.cpu1.icache.ReadReq.mshrHits::total          778                       # number of ReadReq MSHR hits (Count)
system.cpu1.icache.ReadReq.mshrMisses::cpu1.inst         3496                       # number of ReadReq MSHR misses (Count)
system.cpu1.icache.ReadReq.mshrMisses::total         3496                       # number of ReadReq MSHR misses (Count)
system.cpu1.icache.ReadReq.mshrMissLatency::cpu1.inst    267112000                       # number of ReadReq MSHR miss ticks (Tick)
system.cpu1.icache.ReadReq.mshrMissLatency::total    267112000                       # number of ReadReq MSHR miss ticks (Tick)
system.cpu1.icache.ReadReq.mshrMissRate::cpu1.inst     0.014210                       # mshr miss rate for ReadReq accesses (Ratio)
system.cpu1.icache.ReadReq.mshrMissRate::total     0.014210                       # mshr miss rate for ReadReq accesses (Ratio)
system.cpu1.icache.ReadReq.avgMshrMissLatency::cpu1.inst 76405.034325                       # average ReadReq mshr miss latency ((Tick/Count))
system.cpu1.icache.ReadReq.avgMshrMissLatency::total 76405.034325                       # average ReadReq mshr miss latency ((Tick/Count))
system.cpu1.icache.power_state.pwrStateResidencyTicks::UNDEFINED   2246972000                       # Cumulative time (in ticks) in various power states (Tick)
system.cpu1.icache.tags.tagsInUse          253.589645                       # Average ticks per tags in use ((Tick/Count))
system.cpu1.icache.tags.totalRefs              245244                       # Total number of references to valid blocks. (Count)
system.cpu1.icache.tags.sampledRefs              3495                       # Sample count of references to valid blocks. (Count)
system.cpu1.icache.tags.avgRefs             70.169957                       # Average number of references to valid blocks. ((Count/Count))
system.cpu1.icache.tags.warmupTick             107000                       # The tick when the warmup percentage was hit. (Tick)
system.cpu1.icache.tags.occupancies::cpu1.inst   253.589645                       # Average occupied blocks per tick, per requestor ((Count/Tick))
system.cpu1.icache.tags.avgOccs::cpu1.inst     0.990585                       # Average percentage of cache occupancy ((Ratio/Tick))
system.cpu1.icache.tags.avgOccs::total       0.990585                       # Average percentage of cache occupancy ((Ratio/Tick))
system.cpu1.icache.tags.occupanciesTaskId::1024          256                       # Occupied blocks per task id (Count)
system.cpu1.icache.tags.ageTaskId_1024::0           81                       # Occupied blocks per task id, per block age (Count)
system.cpu1.icache.tags.ageTaskId_1024::1          156                       # Occupied blocks per task id, per block age (Count)
system.cpu1.icache.tags.ageTaskId_1024::2           18                       # Occupied blocks per task id, per block age (Count)
system.cpu1.icache.tags.ageTaskId_1024::3            1                       # Occupied blocks per task id, per block age (Count)
system.cpu1.icache.tags.ratioOccsTaskId::1024            1                       # Ratio of occupied blocks and all blocks, per task id (Ratio)
system.cpu1.icache.tags.tagAccesses            495541                       # Number of tag accesses (Count)
system.cpu1.icache.tags.dataAccesses           495541                       # Number of data accesses (Count)
system.cpu1.icache.tags.power_state.pwrStateResidencyTicks::UNDEFINED   2246972000                       # Cumulative time (in ticks) in various power states (Tick)
system.cpu1.interrupts.clk_domain.clock         16000                       # Clock period in ticks (Tick)
system.cpu1.lsq0.forwLoads                      67633                       # Number of loads that had data forwarded from stores (Count)
system.cpu1.lsq0.squashedLoads                 135993                       # Number of loads squashed (Count)
system.cpu1.lsq0.ignoredResponses                 150                       # Number of memory responses ignored because the instruction is squashed (Count)
system.cpu1.lsq0.memOrderViolation                195                       # Number of memory ordering violations (Count)
system.cpu1.lsq0.squashedStores                 33259                       # Number of stores squashed (Count)
system.cpu1.lsq0.rescheduledLoads                   7                       # Number of loads that were rescheduled (Count)
system.cpu1.lsq0.blockedByCache                   512                       # Number of times an access to memory failed due to the cache being blocked (Count)
system.cpu1.lsq0.loadToUse::samples            514781                       # Distribution of cycle latency between the first time a load is issued and its completion
system.cpu1.lsq0.loadToUse::mean             9.563086                       # Distribution of cycle latency between the first time a load is issued and its completion
system.cpu1.lsq0.loadToUse::stdev           25.201062                       # Distribution of cycle latency between the first time a load is issued and its completion
system.cpu1.lsq0.loadToUse::0-9                474552     92.19%     92.19% # Distribution of cycle latency between the first time a load is issued and its completion
system.cpu1.lsq0.loadToUse::10-19                 845      0.16%     92.35% # Distribution of cycle latency between the first time a load is issued and its completion
system.cpu1.lsq0.loadToUse::20-29                6482      1.26%     93.61% # Distribution of cycle latency between the first time a load is issued and its completion
system.cpu1.lsq0.loadToUse::30-39                 658      0.13%     93.74% # Distribution of cycle latency between the first time a load is issued and its completion
system.cpu1.lsq0.loadToUse::40-49                 357      0.07%     93.81% # Distribution of cycle latency between the first time a load is issued and its completion
system.cpu1.lsq0.loadToUse::50-59                 790      0.15%     93.96% # Distribution of cycle latency between the first time a load is issued and its completion
system.cpu1.lsq0.loadToUse::60-69                 985      0.19%     94.15% # Distribution of cycle latency between the first time a load is issued and its completion
system.cpu1.lsq0.loadToUse::70-79                2463      0.48%     94.63% # Distribution of cycle latency between the first time a load is issued and its completion
system.cpu1.lsq0.loadToUse::80-89                3948      0.77%     95.40% # Distribution of cycle latency between the first time a load is issued and its completion
system.cpu1.lsq0.loadToUse::90-99               13171      2.56%     97.95% # Distribution of cycle latency between the first time a load is issued and its completion
system.cpu1.lsq0.loadToUse::100-109              2443      0.47%     98.43% # Distribution of cycle latency between the first time a load is issued and its completion
system.cpu1.lsq0.loadToUse::110-119              4166      0.81%     99.24% # Distribution of cycle latency between the first time a load is issued and its completion
system.cpu1.lsq0.loadToUse::120-129              2814      0.55%     99.78% # Distribution of cycle latency between the first time a load is issued and its completion
system.cpu1.lsq0.loadToUse::130-139               136      0.03%     99.81% # Distribution of cycle latency between the first time a load is issued and its completion
system.cpu1.lsq0.loadToUse::140-149                44      0.01%     99.82% # Distribution of cycle latency between the first time a load is issued and its completion
system.cpu1.lsq0.loadToUse::150-159                76      0.01%     99.83% # Distribution of cycle latency between the first time a load is issued and its completion
system.cpu1.lsq0.loadToUse::160-169                67      0.01%     99.85% # Distribution of cycle latency between the first time a load is issued and its completion
system.cpu1.lsq0.loadToUse::170-179                51      0.01%     99.86% # Distribution of cycle latency between the first time a load is issued and its completion
system.cpu1.lsq0.loadToUse::180-189                51      0.01%     99.87% # Distribution of cycle latency between the first time a load is issued and its completion
system.cpu1.lsq0.loadToUse::190-199                22      0.00%     99.87% # Distribution of cycle latency between the first time a load is issued and its completion
system.cpu1.lsq0.loadToUse::200-209                29      0.01%     99.88% # Distribution of cycle latency between the first time a load is issued and its completion
system.cpu1.lsq0.loadToUse::210-219                25      0.00%     99.88% # Distribution of cycle latency between the first time a load is issued and its completion
system.cpu1.lsq0.loadToUse::220-229                15      0.00%     99.89% # Distribution of cycle latency between the first time a load is issued and its completion
system.cpu1.lsq0.loadToUse::230-239                32      0.01%     99.89% # Distribution of cycle latency between the first time a load is issued and its completion
system.cpu1.lsq0.loadToUse::240-249                14      0.00%     99.89% # Distribution of cycle latency between the first time a load is issued and its completion
system.cpu1.lsq0.loadToUse::250-259                22      0.00%     99.90% # Distribution of cycle latency between the first time a load is issued and its completion
system.cpu1.lsq0.loadToUse::260-269                17      0.00%     99.90% # Distribution of cycle latency between the first time a load is issued and its completion
system.cpu1.lsq0.loadToUse::270-279                27      0.01%     99.91% # Distribution of cycle latency between the first time a load is issued and its completion
system.cpu1.lsq0.loadToUse::280-289                49      0.01%     99.92% # Distribution of cycle latency between the first time a load is issued and its completion
system.cpu1.lsq0.loadToUse::290-299                48      0.01%     99.93% # Distribution of cycle latency between the first time a load is issued and its completion
system.cpu1.lsq0.loadToUse::overflows             382      0.07%    100.00% # Distribution of cycle latency between the first time a load is issued and its completion
system.cpu1.lsq0.loadToUse::min_value               2                       # Distribution of cycle latency between the first time a load is issued and its completion
system.cpu1.lsq0.loadToUse::max_value             419                       # Distribution of cycle latency between the first time a load is issued and its completion
[...]
system.mem_ctrl.dram.bwRead::cpu1.inst       65937626                       # Total read bandwidth from this memory ((Byte/Second))
system.mem_ctrl.dram.bwRead::cpu1.data      315161916                       # Total read bandwidth from this memory ((Byte/Second))
system.mem_ctrl.dram.bwRead::cpu2.inst       12475456                       # Total read bandwidth from this memory ((Byte/Second))
system.mem_ctrl.dram.bwRead::cpu2.data        7263108                       # Total read bandwidth from this memory ((Byte/Second))
system.mem_ctrl.dram.bwRead::total          400838106                       # Total read bandwidth from this memory ((Byte/Second))
system.mem_ctrl.dram.bwInstRead::cpu1.inst     65937626                       # Instruction read bandwidth from this memory ((Byte/Second))
system.mem_ctrl.dram.bwInstRead::cpu2.inst     12475456                       # Instruction read bandwidth from this memory ((Byte/Second))
system.mem_ctrl.dram.bwInstRead::total       78413082                       # Instruction read bandwidth from this memory ((Byte/Second))
system.mem_ctrl.dram.bwWrite::writebacks     44005889                       # Write bandwidth from this memory ((Byte/Second))
system.mem_ctrl.dram.bwWrite::total          44005889                       # Write bandwidth from this memory ((Byte/Second))
system.mem_ctrl.dram.bwTotal::writebacks     44005889                       # Total bandwidth to/from this memory ((Byte/Second))
system.mem_ctrl.dram.bwTotal::cpu1.inst      65937626                       # Total bandwidth to/from this memory ((Byte/Second))
system.mem_ctrl.dram.bwTotal::cpu1.data     315161916                       # Total bandwidth to/from this memory ((Byte/Second))
system.mem_ctrl.dram.bwTotal::cpu2.inst      12475456                       # Total bandwidth to/from this memory ((Byte/Second))
system.mem_ctrl.dram.bwTotal::cpu2.data       7263108                       # Total bandwidth to/from this memory ((Byte/Second))
system.mem_ctrl.dram.bwTotal::total         444843994                       # Total bandwidth to/from this memory ((Byte/Second))
system.mem_ctrl.dram.readBursts                 14046                       # Number of DRAM read bursts (Count)
system.mem_ctrl.dram.writeBursts                 1514                       # Number of DRAM write bursts (Count)
system.mem_ctrl.dram.perBankRdBursts::0           816                       # Per bank write bursts (Count)
system.mem_ctrl.dram.perBankRdBursts::1           839                       # Per bank write bursts (Count)
system.mem_ctrl.dram.perBankRdBursts::2           882                       # Per bank write bursts (Count)
system.mem_ctrl.dram.perBankRdBursts::3           964                       # Per bank write bursts (Count)
system.mem_ctrl.dram.perBankRdBursts::4           772                       # Per bank write bursts (Count)
system.mem_ctrl.dram.perBankRdBursts::5          1029                       # Per bank write bursts (Count)
system.mem_ctrl.dram.perBankRdBursts::6           973                       # Per bank write bursts (Count)
system.mem_ctrl.dram.perBankRdBursts::7           854                       # Per bank write bursts (Count)
system.mem_ctrl.dram.perBankRdBursts::8           682                       # Per bank write bursts (Count)
system.mem_ctrl.dram.perBankRdBursts::9           833                       # Per bank write bursts (Count)
system.mem_ctrl.dram.perBankRdBursts::10          926                       # Per bank write bursts (Count)
system.mem_ctrl.dram.perBankRdBursts::11         1092                       # Per bank write bursts (Count)
system.mem_ctrl.dram.perBankRdBursts::12          754                       # Per bank write bursts (Count)
system.mem_ctrl.dram.perBankRdBursts::13          944                       # Per bank write bursts (Count)
system.mem_ctrl.dram.perBankRdBursts::14          959                       # Per bank write bursts (Count)
system.mem_ctrl.dram.perBankRdBursts::15          727                       # Per bank write bursts (Count)
system.mem_ctrl.dram.perBankWrBursts::0            63                       # Per bank write bursts (Count)
system.mem_ctrl.dram.perBankWrBursts::1           154                       # Per bank write bursts (Count)
system.mem_ctrl.dram.perBankWrBursts::2            89                       # Per bank write bursts (Count)
system.mem_ctrl.dram.perBankWrBursts::3           100                       # Per bank write bursts (Count)
system.mem_ctrl.dram.perBankWrBursts::4            66                       # Per bank write bursts (Count)
system.mem_ctrl.dram.perBankWrBursts::5            44                       # Per bank write bursts (Count)
system.mem_ctrl.dram.perBankWrBursts::6           154                       # Per bank write bursts (Count)
system.mem_ctrl.dram.perBankWrBursts::7            53                       # Per bank write bursts (Count)
system.mem_ctrl.dram.perBankWrBursts::8             0                       # Per bank write bursts (Count)
system.mem_ctrl.dram.perBankWrBursts::9            40                       # Per bank write bursts (Count)
system.mem_ctrl.dram.perBankWrBursts::10          159                       # Per bank write bursts (Count)
system.mem_ctrl.dram.perBankWrBursts::11          122                       # Per bank write bursts (Count)
system.mem_ctrl.dram.perBankWrBursts::12           57                       # Per bank write bursts (Count)
system.mem_ctrl.dram.perBankWrBursts::13          151                       # Per bank write bursts (Count)
system.mem_ctrl.dram.perBankWrBursts::14          197                       # Per bank write bursts (Count)
system.mem_ctrl.dram.perBankWrBursts::15           65                       # Per bank write bursts (Count)
system.mem_ctrl.dram.totQLat                167828000                       # Total ticks spent queuing (Tick)
system.mem_ctrl.dram.totBusLat               70230000                       # Total ticks spent in databus transfers (Tick)
system.mem_ctrl.dram.totMemAccLat           431190500                       # Total ticks spent from burst creation until serviced by the DRAM (Tick)
system.mem_ctrl.dram.avgQLat                 11948.46                       # Average queueing delay per DRAM burst ((Tick/Count))
system.mem_ctrl.dram.avgBusLat                5000.00                       # Average bus latency per DRAM burst ((Tick/Count))
system.mem_ctrl.dram.avgMemAccLat            30698.46                       # Average memory access latency per DRAM burst ((Tick/Count))
system.mem_ctrl.dram.readRowHits                 9196                       # Number of row buffer hits during reads (Count)
system.mem_ctrl.dram.writeRowHits                1109                       # Number of row buffer hits during writes (Count)
system.mem_ctrl.dram.readRowHitRate             65.47                       # Row buffer hit rate for reads (Ratio)
system.mem_ctrl.dram.writeRowHitRate            73.25                       # Row buffer hit rate for writes (Ratio)
system.mem_ctrl.dram.bytesPerActivate::samples         5246                       # Bytes accessed per row activation (Byte)
system.mem_ctrl.dram.bytesPerActivate::mean   189.474647                       # Bytes accessed per row activation (Byte)
system.mem_ctrl.dram.bytesPerActivate::gmean   122.490955                       # Bytes accessed per row activation (Byte)
system.mem_ctrl.dram.bytesPerActivate::stdev   230.402766                       # Bytes accessed per row activation (Byte)
system.mem_ctrl.dram.bytesPerActivate::0-127         2730     52.04%     52.04% # Bytes accessed per row activation (Byte)
system.mem_ctrl.dram.bytesPerActivate::128-255         1381     26.32%     78.36% # Bytes accessed per row activation (Byte)
system.mem_ctrl.dram.bytesPerActivate::256-383          422      8.04%     86.41% # Bytes accessed per row activation (Byte)
system.mem_ctrl.dram.bytesPerActivate::384-511          203      3.87%     90.28% # Bytes accessed per row activation (Byte)
system.mem_ctrl.dram.bytesPerActivate::512-639          138      2.63%     92.91% # Bytes accessed per row activation (Byte)
system.mem_ctrl.dram.bytesPerActivate::640-767           70      1.33%     94.24% # Bytes accessed per row activation (Byte)
system.mem_ctrl.dram.bytesPerActivate::768-895           61      1.16%     95.41% # Bytes accessed per row activation (Byte)
system.mem_ctrl.dram.bytesPerActivate::896-1023           43      0.82%     96.23% # Bytes accessed per row activation (Byte)
system.mem_ctrl.dram.bytesPerActivate::1024-1151          198      3.77%    100.00% # Bytes accessed per row activation (Byte)
system.mem_ctrl.dram.bytesPerActivate::total         5246                       # Bytes accessed per row activation (Byte)
system.mem_ctrl.dram.bytesRead                 898944                       # Total number of bytes read from DRAM (Byte)
system.mem_ctrl.dram.bytesWritten               96896                       # Total number of bytes written to DRAM (Byte)
system.mem_ctrl.dram.avgRdBW               400.069071                       # Average DRAM read bandwidth in MiBytes/s ((Byte/Second))
system.mem_ctrl.dram.avgWrBW                43.122923                       # Average DRAM write bandwidth in MiBytes/s ((Byte/Second))
system.mem_ctrl.dram.peakBW                  12800.00                       # Theoretical peak bandwidth in MiByte/s ((Byte/Second))
system.mem_ctrl.dram.busUtil                     3.46                       # Data bus utilization in percentage (Ratio)
system.mem_ctrl.dram.busUtilRead                 3.13                       # Data bus utilization in percentage for reads (Ratio)
system.mem_ctrl.dram.busUtilWrite                0.34                       # Data bus utilization in percentage for writes (Ratio)
system.mem_ctrl.dram.pageHitRate                66.23                       # Row buffer hit rate, read and write combined (Ratio)
system.mem_ctrl.dram.power_state.pwrStateResidencyTicks::UNDEFINED   2246972000                       # Cumulative time (in ticks) in various power states (Tick)
system.mem_ctrl.dram.rank0.actEnergy         20791680                       # Energy for activate commands per rank (pJ) (Joule)
system.mem_ctrl.dram.rank0.preEnergy         11032065                       # Energy for precharge commands per rank (pJ) (Joule)
system.mem_ctrl.dram.rank0.readEnergy        50901060                       # Energy for read commands per rank (pJ) (Joule)
system.mem_ctrl.dram.rank0.writeEnergy        3774060                       # Energy for write commands per rank (pJ) (Joule)
system.mem_ctrl.dram.rank0.refreshEnergy 177016320.000000                       # Energy for refresh commands per rank (pJ) (Joule)
system.mem_ctrl.dram.rank0.actBackEnergy    948140280                       # Energy for active background per rank (pJ) (Joule)
system.mem_ctrl.dram.rank0.preBackEnergy     64403520                       # Energy for precharge background per rank (pJ) (Joule)
system.mem_ctrl.dram.rank0.actPowerDownEnergy            0                       # Energy for active power-down per rank (pJ) (Joule)
system.mem_ctrl.dram.rank0.prePowerDownEnergy            0                       # Energy for precharge power-down per rank (pJ) (Joule)
system.mem_ctrl.dram.rank0.selfRefreshEnergy            0                       # Energy for self refresh per rank (pJ) (Joule)
system.mem_ctrl.dram.rank0.totalEnergy     1276058985                       # Total energy per rank (pJ) (Joule)
system.mem_ctrl.dram.rank0.averagePower    567.901596                       # Core power per rank (mW) (Watt)
system.mem_ctrl.dram.rank0.totalIdleTime            0                       # Total Idle time Per DRAM Rank (Tick)
system.mem_ctrl.dram.rank0.pwrStateTime::IDLE    159059000                       # Time in different power states (Tick)
system.mem_ctrl.dram.rank0.pwrStateTime::REF     74880000                       # Time in different power states (Tick)
system.mem_ctrl.dram.rank0.pwrStateTime::SREF            0                       # Time in different power states (Tick)
system.mem_ctrl.dram.rank0.pwrStateTime::PRE_PDN            0                       # Time in different power states (Tick)
system.mem_ctrl.dram.rank0.pwrStateTime::ACT   2013033000                       # Time in different power states (Tick)
system.mem_ctrl.dram.rank0.pwrStateTime::ACT_PDN            0                       # Time in different power states (Tick)
system.mem_ctrl.dram.rank1.actEnergy         16729020                       # Energy for activate commands per rank (pJ) (Joule)
system.mem_ctrl.dram.rank1.preEnergy          8876505                       # Energy for precharge commands per rank (pJ) (Joule)
system.mem_ctrl.dram.rank1.readEnergy        49387380                       # Energy for read commands per rank (pJ) (Joule)
system.mem_ctrl.dram.rank1.writeEnergy        4129020                       # Energy for write commands per rank (pJ) (Joule)
system.mem_ctrl.dram.rank1.refreshEnergy 177016320.000000                       # Energy for refresh commands per rank (pJ) (Joule)
system.mem_ctrl.dram.rank1.actBackEnergy    944986470                       # Energy for active background per rank (pJ) (Joule)
system.mem_ctrl.dram.rank1.preBackEnergy     67059360                       # Energy for precharge background per rank (pJ) (Joule)
system.mem_ctrl.dram.rank1.actPowerDownEnergy            0                       # Energy for active power-down per rank (pJ) (Joule)
system.mem_ctrl.dram.rank1.prePowerDownEnergy            0                       # Energy for precharge power-down per rank (pJ) (Joule)
system.mem_ctrl.dram.rank1.selfRefreshEnergy            0                       # Energy for self refresh per rank (pJ) (Joule)
system.mem_ctrl.dram.rank1.totalEnergy     1268184075                       # Total energy per rank (pJ) (Joule)
system.mem_ctrl.dram.rank1.averagePower    564.396919                       # Core power per rank (mW) (Watt)
system.mem_ctrl.dram.rank1.totalIdleTime            0                       # Total Idle time Per DRAM Rank (Tick)
system.mem_ctrl.dram.rank1.pwrStateTime::IDLE    166222000                       # Time in different power states (Tick)
system.mem_ctrl.dram.rank1.pwrStateTime::REF     74880000                       # Time in different power states (Tick)
system.mem_ctrl.dram.rank1.pwrStateTime::SREF            0                       # Time in different power states (Tick)
system.mem_ctrl.dram.rank1.pwrStateTime::PRE_PDN            0                       # Time in different power states (Tick)
system.mem_ctrl.dram.rank1.pwrStateTime::ACT   2005870000                       # Time in different power states (Tick)
system.mem_ctrl.dram.rank1.pwrStateTime::ACT_PDN            0                       # Time in different power states (Tick)
system.mem_ctrl.power_state.pwrStateResidencyTicks::UNDEFINED   2246972000                       # Cumulative time (in ticks) in various power states (Tick)
system.membus.transDist::ReadResp               12284                       # Transaction distribution (Count)
system.membus.transDist::WritebackDirty          1545                       # Transaction distribution (Count)
system.membus.transDist::CleanEvict              8193                       # Transaction distribution (Count)
system.membus.transDist::UpgradeReq                29                       # Transaction distribution (Count)
system.membus.transDist::ReadExReq               1789                       # Transaction distribution (Count)
system.membus.transDist::ReadExResp              1789                       # Transaction distribution (Count)
system.membus.transDist::ReadSharedReq          12284                       # Transaction distribution (Count)
system.membus.pktCount_system.l2cache.mem_side_port::system.mem_ctrl.port        37913                       # Packet count per connected requestor and responder (Count)
system.membus.pktCount_system.l2cache.mem_side_port::total        37913                       # Packet count per connected requestor and responder (Count)
system.membus.pktCount::total                   37913                       # Packet count per connected requestor and responder (Count)
system.membus.pktSize_system.l2cache.mem_side_port::system.mem_ctrl.port       999552                       # Cumulative packet size per connected requestor and responder (Byte)
system.membus.pktSize_system.l2cache.mem_side_port::total       999552                       # Cumulative packet size per connected requestor and responder (Byte)
system.membus.pktSize::total                   999552                       # Cumulative packet size per connected requestor and responder (Byte)
system.membus.snoops                               27                       # Total snoops (Count)
system.membus.snoopTraffic                          0                       # Total snoop traffic (Byte)
system.membus.snoopFanout::samples              14102                       # Request fanout histogram
system.membus.snoopFanout::mean                     0                       # Request fanout histogram
system.membus.snoopFanout::stdev                    0                       # Request fanout histogram
system.membus.snoopFanout::underflows               0      0.00%      0.00% # Request fanout histogram
system.membus.snoopFanout::0                    14102    100.00%    100.00% # Request fanout histogram
system.membus.snoopFanout::1                        0      0.00%    100.00% # Request fanout histogram
system.membus.snoopFanout::overflows                0      0.00%    100.00% # Request fanout histogram
system.membus.snoopFanout::min_value                0                       # Request fanout histogram
system.membus.snoopFanout::max_value                0                       # Request fanout histogram
system.membus.snoopFanout::total                14102                       # Request fanout histogram
system.membus.power_state.pwrStateResidencyTicks::UNDEFINED   2246972000                       # Cumulative time (in ticks) in various power states (Tick)
system.membus.reqLayer4.occupancy            29993000                       # Layer occupancy (ticks) (Tick)
system.membus.reqLayer4.utilization               0.0                       # Layer utilization (Ratio)
system.membus.respLayer0.occupancy           75334250                       # Layer occupancy (ticks) (Tick)
system.membus.respLayer0.utilization              0.0                       # Layer utilization (Ratio)
system.membus.snoop_filter.totRequests          23840                       # Total number of requests made to the snoop filter. (Count)
system.membus.snoop_filter.hitSingleRequests         9787                       # Number of requests hitting in the snoop filter with a single holder of the requested data. (Count)
system.membus.snoop_filter.hitMultiRequests            0                       # Number of requests hitting in the snoop filter with multiple (>1) holders of the requested data. (Count)
system.membus.snoop_filter.totSnoops                0                       # Total number of snoops made to the snoop filter. (Count)
system.membus.snoop_filter.hitSingleSnoops            0                       # Number of snoops hitting in the snoop filter with a single holder of the requested data. (Count)
system.membus.snoop_filter.hitMultiSnoops            0                       # Number of snoops hitting in the snoop filter with multiple (>1) holders of the requested data. (Count)
system.workload.inst.arm                            0                       # number of arm instructions executed (Count)
system.workload.inst.quiesce                        0                       # number of quiesce instructions executed (Count)

---------- End Simulation Statistics   ----------
